REMARK  Name = D:\DATA SETS\BI\DOCKING\8IFR\P0O_LIGAND.pdb
REMARK  20 active torsions:
REMARK  status: ('A' for Active; 'I' for Inactive)
REMARK    1  A    between atoms: _1  and  _4
REMARK    2  A    between atoms: _4  and  _7
REMARK    3  A    between atoms: _4  and  _10
REMARK    4  A    between atoms: _4  and  _39
REMARK    5  A    between atoms: _5  and  _20
REMARK    6  A    between atoms: _10  and  _11
REMARK    7  A    between atoms: _10  and  _13
REMARK    8  A    between atoms: _14  and  _35
REMARK    9  A    between atoms: _18  and  _19
REMARK   10  A    between atoms: _20  and  _21
REMARK   11  A    between atoms: _20  and  _25
REMARK   12  A    between atoms: _21  and  _22
REMARK   13  A    between atoms: _22  and  _23
REMARK   14  A    between atoms: _23  and  _24
REMARK   15  A    between atoms: _25  and  _26
REMARK   16  A    between atoms: _31  and  _32
REMARK   17  A    between atoms: _31  and  _33
REMARK   18  A    between atoms: _35  and  _36
REMARK   19  A    between atoms: _35  and  _37
REMARK   20  A    between atoms: _35  and  _38
REMARK                            x       y       z     vdW  Elec       q    Type
REMARK                         _______ _______ _______ _____ _____    ______ ____
ROOT
ATOM      5  C   UNL     1     -19.162  16.778 -24.477  0.00  0.00    +0.237 C 
ATOM      6  O   UNL     1     -18.078  17.362 -24.487  0.00  0.00    -0.274 OA
ATOM      7  N   UNL     1     -19.648  16.218 -25.595  0.00  0.00    -0.288 N 
ATOM      8  C   UNL     1     -18.924  16.378 -26.856  0.00  0.00    +0.166 C 
ATOM      9  C   UNL     1     -19.661  15.480 -27.834  0.00  0.00    +0.030 C 
ATOM     10  C   UNL     1     -19.678  13.999 -27.536  0.00  0.00    -0.025 C 
ATOM     11  C   UNL     1     -19.860  13.097 -28.739  0.00  0.00    +0.011 C 
ATOM     12  C   UNL     1     -18.839  13.361 -26.447  0.00  0.00    +0.011 C 
ATOM     13  C   UNL     1     -20.837  14.850 -27.109  0.00  0.00    +0.018 C 
ATOM     32  C   UNL     1     -20.894  15.443 -25.714  0.00  0.00    +0.113 C 
ENDROOT
BRANCH   8  14
ATOM     14  C   UNL     1     -18.946  17.839 -27.297  0.00  0.00    +0.234 C 
ATOM     15  O   UNL     1     -19.951  18.537 -27.151  0.00  0.00    -0.274 OA
ATOM     16  N   UNL     1     -17.788  18.316 -27.772  0.00  0.00    -0.311 N 
ATOM     17  H   UNL     1     -17.023  17.703 -27.860  0.00  0.00    +0.149 HD
BRANCH  16  18
ATOM     18  C   UNL     1     -17.622  19.705 -28.161  0.00  0.00    +0.074 C 
BRANCH  18  19
ATOM     19  C   UNL     1     -16.541  20.406 -27.328  0.00  0.00    +0.035 C 
BRANCH  19  20
ATOM     20  C   UNL     1     -17.058  20.674 -25.901  0.00  0.00    +0.078 C 
ATOM     21  C   UNL     1     -16.052  21.366 -24.995  0.00  0.00    +0.216 C 
ATOM     22  N   UNL     1     -16.683  22.300 -24.281  0.00  0.00    -0.315 N 
ATOM     23  H   UNL     1     -16.218  22.934 -23.689  0.00  0.00    +0.149 HD
ATOM     24  C   UNL     1     -18.132  22.289 -24.465  0.00  0.00    +0.105 C 
ATOM     25  O   UNL     1     -14.841  21.092 -24.916  0.00  0.00    -0.276 OA
ATOM     26  C   UNL     1     -18.289  21.575 -25.806  0.00  0.00    +0.031 C 
ENDBRANCH  19  20
ENDBRANCH  18  19
BRANCH  18  27
ATOM     27  C   UNL     1     -17.376  19.816 -29.665  0.00  0.00    +0.030 C 
BRANCH  27  28
ATOM     28  C   UNL     1     -18.317  19.535 -30.558  0.00  0.00    +0.076 C 
BRANCH  28  29
ATOM     29  C   UNL     1     -18.653  20.318 -31.765  0.00  0.00    +0.130 C 
ATOM     30  C   UNL     1     -19.879  19.946 -32.553  0.00  0.00    +0.086 C 
ATOM     31  O   UNL     1     -17.956  21.269 -32.148  0.00  0.00    -0.298 OA
ENDBRANCH  28  29
ENDBRANCH  27  28
ENDBRANCH  18  27
ENDBRANCH  16  18
ENDBRANCH   8  14
BRANCH   5   4
ATOM      4  C   UNL     1     -19.995  16.650 -23.201  0.00  0.00    +0.166 C 
BRANCH   4  33
ATOM     33  N   UNL     1     -19.155  16.103 -22.149  0.00  0.00    -0.288 N 
ATOM     34  H   UNL     1     -18.316  16.562 -21.915  0.00  0.00    +0.151 HD
ATOM     35  C   UNL     1     -19.499  14.980 -21.486  0.00  0.00    +0.301 C 
ATOM     36  O   UNL     1     -20.551  14.375 -21.762  0.00  0.00    -0.253 OA
ATOM     37  N   UNL     1     -18.648  14.619 -20.505  0.00  0.00    -0.295 N 
ATOM     38  H   UNL     1     -17.976  15.286 -20.235  0.00  0.00    +0.151 HD
BRANCH  37  39
ATOM     39  C   UNL     1     -18.622  13.325 -19.794  0.00  0.00    +0.028 C 
ATOM     40  C   UNL     1     -17.461  13.332 -18.811  0.00  0.00    +0.031 C 
ATOM     41  C   UNL     1     -18.421  12.222 -20.824  0.00  0.00    +0.031 C 
ATOM     42  C   UNL     1     -19.930  13.121 -19.044  0.00  0.00    +0.031 C 
ENDBRANCH  37  39
ENDBRANCH   4  33
BRANCH   4   2
ATOM      1  C   UNL     1     -21.427  18.606 -23.890  0.00  0.00    +0.013 C 
ATOM      2  C   UNL     1     -20.622  17.983 -22.748  0.00  0.00    -0.011 C 
ATOM      3  C   UNL     1     -21.557  17.738 -21.559  0.00  0.00    +0.013 C 
ATOM     43  C   UNL     1     -19.541  18.973 -22.304  0.00  0.00    +0.013 C 
ENDBRANCH   4   2
ENDBRANCH   5   4
TORSDOF 11
