MODEL 1
REMARK VINA RESULT:      -8.0      0.000      0.000
REMARK  Name = D:\DATA SETS\BI\DOCKING\8IFR\P0O_LIGAND.pdb
REMARK  20 active torsions:
REMARK  status: ('A' for Active; 'I' for Inactive)
REMARK    1  A    between atoms: _1  and  _4
REMARK    2  A    between atoms: _4  and  _7
REMARK    3  A    between atoms: _4  and  _10
REMARK    4  A    between atoms: _4  and  _39
REMARK    5  A    between atoms: _5  and  _20
REMARK    6  A    between atoms: _10  and  _11
REMARK    7  A    between atoms: _10  and  _13
REMARK    8  A    between atoms: _14  and  _35
REMARK    9  A    between atoms: _18  and  _19
REMARK   10  A    between atoms: _20  and  _21
REMARK   11  A    between atoms: _20  and  _25
REMARK   12  A    between atoms: _21  and  _22
REMARK   13  A    between atoms: _22  and  _23
REMARK   14  A    between atoms: _23  and  _24
REMARK   15  A    between atoms: _25  and  _26
REMARK   16  A    between atoms: _31  and  _32
REMARK   17  A    between atoms: _31  and  _33
REMARK   18  A    between atoms: _35  and  _36
REMARK   19  A    between atoms: _35  and  _37
REMARK   20  A    between atoms: _35  and  _38
REMARK                            x       y       z     vdW  Elec       q    Type
REMARK                         _______ _______ _______ _____ _____    ______ ____
ROOT
ATOM      5  C   UNL     1     -20.379  16.504 -26.524  0.00  0.00    +0.237 C 
ATOM      6  O   UNL     1     -21.598  16.471 -26.695  0.00  0.00    -0.274 OA
ATOM      7  N   UNL     1     -19.699  17.652 -26.662  0.00  0.00    -0.288 N 
ATOM      8  C   UNL     1     -20.400  18.857 -27.105  0.00  0.00    +0.166 C 
ATOM      9  C   UNL     1     -19.370  19.965 -26.973  0.00  0.00    +0.030 C 
ATOM     10  C   UNL     1     -18.845  20.261 -25.587  0.00  0.00    -0.025 C 
ATOM     11  C   UNL     1     -18.329  21.669 -25.376  0.00  0.00    +0.011 C 
ATOM     12  C   UNL     1     -19.437  19.659 -24.329  0.00  0.00    +0.011 C 
ATOM     13  C   UNL     1     -18.068  19.351 -26.491  0.00  0.00    +0.018 C 
ATOM     32  C   UNL     1     -18.258  17.847 -26.432  0.00  0.00    +0.113 C 
ENDROOT
BRANCH   8  14
ATOM     14  C   UNL     1     -20.878  18.692 -28.545  0.00  0.00    +0.234 C 
ATOM     15  O   UNL     1     -20.268  17.980 -29.345  0.00  0.00    -0.274 OA
ATOM     16  N   UNL     1     -22.030  19.305 -28.844  0.00  0.00    -0.311 N 
ATOM     17  H   UNL     1     -22.467  19.857 -28.156  0.00  0.00    +0.149 HD
BRANCH  16  18
ATOM     18  C   UNL     1     -22.659  19.183 -30.148  0.00  0.00    +0.074 C 
BRANCH  18  19
ATOM     19  C   UNL     1     -24.168  18.935 -30.033  0.00  0.00    +0.035 C 
BRANCH  19  20
ATOM     20  C   UNL     1     -24.933  19.837 -31.021  0.00  0.00    +0.078 C 
ATOM     21  C   UNL     1     -25.728  19.076 -32.071  0.00  0.00    +0.216 C 
ATOM     22  N   UNL     1     -26.914  19.666 -32.228  0.00  0.00    -0.315 N 
ATOM     23  H   UNL     1     -27.630  19.297 -32.794  0.00  0.00    +0.149 HD
ATOM     24  C   UNL     1     -27.045  20.913 -31.478  0.00  0.00    +0.105 C 
ATOM     25  O   UNL     1     -25.329  18.078 -32.697  0.00  0.00    -0.276 OA
ATOM     26  C   UNL     1     -25.979  20.760 -30.395  0.00  0.00    +0.031 C 
ENDBRANCH  19  20
ENDBRANCH  18  19
BRANCH  18  27
ATOM     27  C   UNL     1     -22.321  20.390 -31.022  0.00  0.00    +0.030 C 
BRANCH  27  28
ATOM     28  C   UNL     1     -21.256  20.414 -31.813  0.00  0.00    +0.076 C 
BRANCH  28  29
ATOM     29  C   UNL     1     -19.873  20.756 -31.424  0.00  0.00    +0.130 C 
ATOM     30  C   UNL     1     -18.761  20.512 -32.408  0.00  0.00    +0.086 C 
ATOM     31  O   UNL     1     -19.600  21.235 -30.313  0.00  0.00    -0.298 OA
ENDBRANCH  28  29
ENDBRANCH  27  28
ENDBRANCH  18  27
ENDBRANCH  16  18
ENDBRANCH   8  14
BRANCH   5   4
ATOM      4  C   UNL     1     -19.588  15.254 -26.136  0.00  0.00    +0.166 C 
BRANCH   4  33
ATOM     33  N   UNL     1     -20.171  14.689 -24.931  0.00  0.00    -0.288 N 
ATOM     34  H   UNL     1     -20.990  14.147 -25.000  0.00  0.00    +0.151 HD
ATOM     35  C   UNL     1     -19.615  14.890 -23.718  0.00  0.00    +0.301 C 
ATOM     36  O   UNL     1     -18.582  15.574 -23.598  0.00  0.00    -0.253 OA
ATOM     37  N   UNL     1     -20.237  14.266 -22.699  0.00  0.00    -0.295 N 
ATOM     38  H   UNL     1     -20.905  13.583 -22.941  0.00  0.00    +0.151 HD
BRANCH  37  39
ATOM     39  C   UNL     1     -20.020  14.501 -21.258  0.00  0.00    +0.028 C 
ATOM     40  C   UNL     1     -21.033  13.682 -20.472  0.00  0.00    +0.031 C 
ATOM     41  C   UNL     1     -20.229  15.983 -20.982  0.00  0.00    +0.031 C 
ATOM     42  C   UNL     1     -18.609  14.081 -20.873  0.00  0.00    +0.031 C 
ENDBRANCH  37  39
ENDBRANCH   4  33
BRANCH   4   2
ATOM      1  C   UNL     1     -19.488  14.873 -28.625  0.00  0.00    +0.013 C 
ATOM      2  C   UNL     1     -19.537  14.195 -27.254  0.00  0.00    -0.011 C 
ATOM      3  C   UNL     1     -18.286  13.325 -27.087  0.00  0.00    +0.013 C 
ATOM     43  C   UNL     1     -20.762  13.278 -27.196  0.00  0.00    +0.013 C 
ENDBRANCH   4   2
ENDBRANCH   5   4
TORSDOF 11
ENDMDL
MODEL 2
REMARK VINA RESULT:      -7.3      1.941      3.292
REMARK  Name = D:\DATA SETS\BI\DOCKING\8IFR\P0O_LIGAND.pdb
REMARK  20 active torsions:
REMARK  status: ('A' for Active; 'I' for Inactive)
REMARK    1  A    between atoms: _1  and  _4
REMARK    2  A    between atoms: _4  and  _7
REMARK    3  A    between atoms: _4  and  _10
REMARK    4  A    between atoms: _4  and  _39
REMARK    5  A    between atoms: _5  and  _20
REMARK    6  A    between atoms: _10  and  _11
REMARK    7  A    between atoms: _10  and  _13
REMARK    8  A    between atoms: _14  and  _35
REMARK    9  A    between atoms: _18  and  _19
REMARK   10  A    between atoms: _20  and  _21
REMARK   11  A    between atoms: _20  and  _25
REMARK   12  A    between atoms: _21  and  _22
REMARK   13  A    between atoms: _22  and  _23
REMARK   14  A    between atoms: _23  and  _24
REMARK   15  A    between atoms: _25  and  _26
REMARK   16  A    between atoms: _31  and  _32
REMARK   17  A    between atoms: _31  and  _33
REMARK   18  A    between atoms: _35  and  _36
REMARK   19  A    between atoms: _35  and  _37
REMARK   20  A    between atoms: _35  and  _38
REMARK                            x       y       z     vdW  Elec       q    Type
REMARK                         _______ _______ _______ _____ _____    ______ ____
ROOT
ATOM      5  C   UNL     1     -20.279  17.125 -25.866  0.00  0.00    +0.237 C 
ATOM      6  O   UNL     1     -21.371  17.192 -26.430  0.00  0.00    -0.274 OA
ATOM      7  N   UNL     1     -19.668  18.234 -25.422  0.00  0.00    -0.288 N 
ATOM      8  C   UNL     1     -20.265  19.542 -25.689  0.00  0.00    +0.166 C 
ATOM      9  C   UNL     1     -19.410  20.518 -24.899  0.00  0.00    +0.030 C 
ATOM     10  C   UNL     1     -19.385  20.358 -23.397  0.00  0.00    -0.025 C 
ATOM     11  C   UNL     1     -19.060  21.614 -22.616  0.00  0.00    +0.011 C 
ATOM     12  C   UNL     1     -20.313  19.425 -22.646  0.00  0.00    +0.011 C 
ATOM     13  C   UNL     1     -18.298  19.737 -24.223  0.00  0.00    +0.018 C 
ATOM     32  C   UNL     1     -18.397  18.295 -24.682  0.00  0.00    +0.113 C 
ENDROOT
BRANCH   8  14
ATOM     14  C   UNL     1     -20.236  19.842 -27.185  0.00  0.00    +0.234 C 
ATOM     15  O   UNL     1     -19.207  19.700 -27.847  0.00  0.00    -0.274 OA
ATOM     16  N   UNL     1     -21.412  20.186 -27.727  0.00  0.00    -0.311 N 
ATOM     17  H   UNL     1     -22.196  20.278 -27.140  0.00  0.00    +0.149 HD
BRANCH  16  18
ATOM     18  C   UNL     1     -21.569  20.427 -29.151  0.00  0.00    +0.074 C 
BRANCH  18  19
ATOM     19  C   UNL     1     -21.935  19.146 -29.910  0.00  0.00    +0.035 C 
BRANCH  19  20
ATOM     20  C   UNL     1     -21.169  19.081 -31.246  0.00  0.00    +0.078 C 
ATOM     21  C   UNL     1     -21.731  19.986 -32.330  0.00  0.00    +0.216 C 
ATOM     22  N   UNL     1     -20.720  20.572 -32.973  0.00  0.00    -0.315 N 
ATOM     23  H   UNL     1     -20.845  21.267 -33.658  0.00  0.00    +0.149 HD
ATOM     24  C   UNL     1     -19.408  20.081 -32.559  0.00  0.00    +0.105 C 
ATOM     25  O   UNL     1     -22.938  20.139 -32.591  0.00  0.00    -0.276 OA
ATOM     26  C   UNL     1     -19.697  19.489 -31.181  0.00  0.00    +0.031 C 
ENDBRANCH  19  20
ENDBRANCH  18  19
BRANCH  18  27
ATOM     27  C   UNL     1     -22.559  21.565 -29.396  0.00  0.00    +0.030 C 
BRANCH  27  28
ATOM     28  C   UNL     1     -23.873  21.378 -29.366  0.00  0.00    +0.076 C 
BRANCH  28  29
ATOM     29  C   UNL     1     -24.784  21.688 -28.246  0.00  0.00    +0.130 C 
ATOM     30  C   UNL     1     -25.826  20.675 -27.856  0.00  0.00    +0.086 C 
ATOM     31  O   UNL     1     -24.718  22.756 -27.619  0.00  0.00    -0.298 OA
ENDBRANCH  28  29
ENDBRANCH  27  28
ENDBRANCH  18  27
ENDBRANCH  16  18
ENDBRANCH   8  14
BRANCH   5   4
ATOM      4  C   UNL     1     -19.576  15.787 -25.631  0.00  0.00    +0.166 C 
BRANCH   4  33
ATOM     33  N   UNL     1     -20.227  15.106 -24.525  0.00  0.00    -0.288 N 
ATOM     34  H   UNL     1     -21.132  14.740 -24.650  0.00  0.00    +0.151 HD
ATOM     35  C   UNL     1     -19.618  14.965 -23.329  0.00  0.00    +0.301 C 
ATOM     36  O   UNL     1     -18.476  15.421 -23.138  0.00  0.00    -0.253 OA
ATOM     37  N   UNL     1     -20.323  14.270 -22.414  0.00  0.00    -0.295 N 
ATOM     38  H   UNL     1     -21.108  13.775 -22.743  0.00  0.00    +0.151 HD
BRANCH  37  39
ATOM     39  C   UNL     1     -20.037  14.176 -20.968  0.00  0.00    +0.028 C 
ATOM     40  C   UNL     1     -18.677  13.521 -20.783  0.00  0.00    +0.031 C 
ATOM     41  C   UNL     1     -21.117  13.316 -20.327  0.00  0.00    +0.031 C 
ATOM     42  C   UNL     1     -20.028  15.566 -20.351  0.00  0.00    +0.031 C 
ENDBRANCH  37  39
ENDBRANCH   4  33
BRANCH   4   2
ATOM      1  C   UNL     1     -19.275  15.716 -28.132  0.00  0.00    +0.013 C 
ATOM      2  C   UNL     1     -19.555  14.884 -26.879  0.00  0.00    -0.011 C 
ATOM      3  C   UNL     1     -18.459  13.823 -26.734  0.00  0.00    +0.013 C 
ATOM     43  C   UNL     1     -20.894  14.160 -27.053  0.00  0.00    +0.013 C 
ENDBRANCH   4   2
ENDBRANCH   5   4
TORSDOF 11
ENDMDL
MODEL 3
REMARK VINA RESULT:      -7.0      3.582      7.462
REMARK  Name = D:\DATA SETS\BI\DOCKING\8IFR\P0O_LIGAND.pdb
REMARK  20 active torsions:
REMARK  status: ('A' for Active; 'I' for Inactive)
REMARK    1  A    between atoms: _1  and  _4
REMARK    2  A    between atoms: _4  and  _7
REMARK    3  A    between atoms: _4  and  _10
REMARK    4  A    between atoms: _4  and  _39
REMARK    5  A    between atoms: _5  and  _20
REMARK    6  A    between atoms: _10  and  _11
REMARK    7  A    between atoms: _10  and  _13
REMARK    8  A    between atoms: _14  and  _35
REMARK    9  A    between atoms: _18  and  _19
REMARK   10  A    between atoms: _20  and  _21
REMARK   11  A    between atoms: _20  and  _25
REMARK   12  A    between atoms: _21  and  _22
REMARK   13  A    between atoms: _22  and  _23
REMARK   14  A    between atoms: _23  and  _24
REMARK   15  A    between atoms: _25  and  _26
REMARK   16  A    between atoms: _31  and  _32
REMARK   17  A    between atoms: _31  and  _33
REMARK   18  A    between atoms: _35  and  _36
REMARK   19  A    between atoms: _35  and  _37
REMARK   20  A    between atoms: _35  and  _38
REMARK                            x       y       z     vdW  Elec       q    Type
REMARK                         _______ _______ _______ _____ _____    ______ ____
ROOT
ATOM      5  C   UNL     1     -19.589  18.414 -22.175  0.00  0.00    +0.237 C 
ATOM      6  O   UNL     1     -18.592  18.340 -22.893  0.00  0.00    -0.274 OA
ATOM      7  N   UNL     1     -20.270  17.310 -21.833  0.00  0.00    -0.288 N 
ATOM      8  C   UNL     1     -19.874  16.017 -22.391  0.00  0.00    +0.166 C 
ATOM      9  C   UNL     1     -20.737  15.006 -21.656  0.00  0.00    +0.030 C 
ATOM     10  C   UNL     1     -20.555  14.899 -20.160  0.00  0.00    -0.025 C 
ATOM     11  C   UNL     1     -20.931  13.563 -19.554  0.00  0.00    +0.011 C 
ATOM     12  C   UNL     1     -19.434  15.589 -19.408  0.00  0.00    +0.011 C 
ATOM     13  C   UNL     1     -21.653  15.761 -20.709  0.00  0.00    +0.018 C 
ATOM     32  C   UNL     1     -21.437  17.244 -20.938  0.00  0.00    +0.113 C 
ENDROOT
BRANCH   8  14
ATOM     14  C   UNL     1     -20.126  15.991 -23.896  0.00  0.00    +0.234 C 
ATOM     15  O   UNL     1     -21.229  16.273 -24.367  0.00  0.00    -0.274 OA
ATOM     16  N   UNL     1     -19.055  15.721 -24.655  0.00  0.00    -0.311 N 
ATOM     17  H   UNL     1     -18.202  15.507 -24.214  0.00  0.00    +0.149 HD
BRANCH  16  18
ATOM     18  C   UNL     1     -19.110  15.735 -26.106  0.00  0.00    +0.074 C 
BRANCH  18  19
ATOM     19  C   UNL     1     -18.543  17.037 -26.687  0.00  0.00    +0.035 C 
BRANCH  19  20
ATOM     20  C   UNL     1     -19.635  17.790 -27.472  0.00  0.00    +0.078 C 
ATOM     21  C   UNL     1     -19.321  19.256 -27.724  0.00  0.00    +0.216 C 
ATOM     22  N   UNL     1     -19.669  19.565 -28.974  0.00  0.00    -0.315 N 
ATOM     23  H   UNL     1     -19.479  20.437 -29.389  0.00  0.00    +0.149 HD
ATOM     24  C   UNL     1     -20.361  18.481 -29.667  0.00  0.00    +0.105 C 
ATOM     25  O   UNL     1     -18.836  20.046 -26.893  0.00  0.00    -0.276 OA
ATOM     26  C   UNL     1     -19.927  17.251 -28.872  0.00  0.00    +0.031 C 
ENDBRANCH  19  20
ENDBRANCH  18  19
BRANCH  18  27
ATOM     27  C   UNL     1     -18.438  14.489 -26.681  0.00  0.00    +0.030 C 
BRANCH  27  28
ATOM     28  C   UNL     1     -18.536  14.160 -27.963  0.00  0.00    +0.076 C 
BRANCH  28  29
ATOM     29  C   UNL     1     -19.310  13.037 -28.531  0.00  0.00    +0.130 C 
ATOM     30  C   UNL     1     -20.579  12.611 -27.846  0.00  0.00    +0.086 C 
ATOM     31  O   UNL     1     -18.945  12.435 -29.552  0.00  0.00    -0.298 OA
ENDBRANCH  28  29
ENDBRANCH  27  28
ENDBRANCH  18  27
ENDBRANCH  16  18
ENDBRANCH   8  14
BRANCH   5   4
ATOM      4  C   UNL     1     -20.089  19.752 -21.628  0.00  0.00    +0.166 C 
BRANCH   4  33
ATOM     33  N   UNL     1     -19.178  20.202 -20.590  0.00  0.00    -0.288 N 
ATOM     34  H   UNL     1     -18.253  20.438 -20.830  0.00  0.00    +0.151 HD
ATOM     35  C   UNL     1     -19.571  20.302 -19.303  0.00  0.00    +0.301 C 
ATOM     36  O   UNL     1     -20.733  20.007 -18.968  0.00  0.00    -0.253 OA
ATOM     37  N   UNL     1     -18.633  20.778 -18.461  0.00  0.00    -0.295 N 
ATOM     38  H   UNL     1     -17.834  21.181 -18.871  0.00  0.00    +0.151 HD
BRANCH  37  39
ATOM     39  C   UNL     1     -18.683  20.757 -16.985  0.00  0.00    +0.028 C 
ATOM     40  C   UNL     1     -19.795  21.686 -16.521  0.00  0.00    +0.031 C 
ATOM     41  C   UNL     1     -17.343  21.251 -16.458  0.00  0.00    +0.031 C 
ATOM     42  C   UNL     1     -18.958  19.342 -16.497  0.00  0.00    +0.031 C 
ENDBRANCH  37  39
ENDBRANCH   4  33
BRANCH   4   2
ATOM      1  C   UNL     1     -20.801  20.222 -24.000  0.00  0.00    +0.013 C 
ATOM      2  C   UNL     1     -20.240  20.835 -22.715  0.00  0.00    -0.011 C 
ATOM      3  C   UNL     1     -21.197  21.927 -22.228  0.00  0.00    +0.013 C 
ATOM     43  C   UNL     1     -18.891  21.490 -23.024  0.00  0.00    +0.013 C 
ENDBRANCH   4   2
ENDBRANCH   5   4
TORSDOF 11
ENDMDL
MODEL 4
REMARK VINA RESULT:      -7.0     22.271     27.576
REMARK  Name = D:\DATA SETS\BI\DOCKING\8IFR\P0O_LIGAND.pdb
REMARK  20 active torsions:
REMARK  status: ('A' for Active; 'I' for Inactive)
REMARK    1  A    between atoms: _1  and  _4
REMARK    2  A    between atoms: _4  and  _7
REMARK    3  A    between atoms: _4  and  _10
REMARK    4  A    between atoms: _4  and  _39
REMARK    5  A    between atoms: _5  and  _20
REMARK    6  A    between atoms: _10  and  _11
REMARK    7  A    between atoms: _10  and  _13
REMARK    8  A    between atoms: _14  and  _35
REMARK    9  A    between atoms: _18  and  _19
REMARK   10  A    between atoms: _20  and  _21
REMARK   11  A    between atoms: _20  and  _25
REMARK   12  A    between atoms: _21  and  _22
REMARK   13  A    between atoms: _22  and  _23
REMARK   14  A    between atoms: _23  and  _24
REMARK   15  A    between atoms: _25  and  _26
REMARK   16  A    between atoms: _31  and  _32
REMARK   17  A    between atoms: _31  and  _33
REMARK   18  A    between atoms: _35  and  _36
REMARK   19  A    between atoms: _35  and  _37
REMARK   20  A    between atoms: _35  and  _38
REMARK                            x       y       z     vdW  Elec       q    Type
REMARK                         _______ _______ _______ _____ _____    ______ ____
ROOT
ATOM      5  C   UNL     1      -1.781  22.167 -12.778  0.00  0.00    +0.237 C 
ATOM      6  O   UNL     1      -1.026  21.255 -13.116  0.00  0.00    -0.274 OA
ATOM      7  N   UNL     1      -1.363  23.125 -11.936  0.00  0.00    -0.288 N 
ATOM      8  C   UNL     1      -0.027  23.035 -11.347  0.00  0.00    +0.166 C 
ATOM      9  C   UNL     1       0.153  24.352 -10.612  0.00  0.00    +0.030 C 
ATOM     10  C   UNL     1       0.134  25.615 -11.441  0.00  0.00    -0.025 C 
ATOM     11  C   UNL     1       0.880  26.792 -10.846  0.00  0.00    +0.011 C 
ATOM     12  C   UNL     1       0.152  25.616 -12.956  0.00  0.00    +0.011 C 
ATOM     13  C   UNL     1      -1.124  25.160 -10.762  0.00  0.00    +0.018 C 
ATOM     32  C   UNL     1      -2.135  24.299 -11.496  0.00  0.00    +0.113 C 
ENDROOT
BRANCH   8  14
ATOM     14  C   UNL     1       0.056  21.840 -10.402  0.00  0.00    +0.234 C 
ATOM     15  O   UNL     1       0.823  20.901 -10.623  0.00  0.00    -0.274 OA
ATOM     16  N   UNL     1      -0.695  21.925  -9.297  0.00  0.00    -0.311 N 
ATOM     17  H   UNL     1      -1.284  22.705  -9.182  0.00  0.00    +0.149 HD
BRANCH  16  18
ATOM     18  C   UNL     1      -0.670  20.907  -8.261  0.00  0.00    +0.074 C 
BRANCH  18  19
ATOM     19  C   UNL     1      -0.227  21.480  -6.909  0.00  0.00    +0.035 C 
BRANCH  19  20
ATOM     20  C   UNL     1       1.180  20.964  -6.546  0.00  0.00    +0.078 C 
ATOM     21  C   UNL     1       2.307  21.902  -6.946  0.00  0.00    +0.216 C 
ATOM     22  N   UNL     1       3.204  21.947  -5.958  0.00  0.00    -0.315 N 
ATOM     23  H   UNL     1       3.977  22.556  -5.957  0.00  0.00    +0.149 HD
ATOM     24  C   UNL     1       2.924  21.004  -4.879  0.00  0.00    +0.105 C 
ATOM     25  O   UNL     1       2.392  22.513  -8.026  0.00  0.00    -0.276 OA
ATOM     26  C   UNL     1       1.432  20.732  -5.057  0.00  0.00    +0.031 C 
ENDBRANCH  19  20
ENDBRANCH  18  19
BRANCH  18  27
ATOM     27  C   UNL     1      -2.013  20.183  -8.187  0.00  0.00    +0.030 C 
BRANCH  27  28
ATOM     28  C   UNL     1      -2.123  18.874  -8.381  0.00  0.00    +0.076 C 
BRANCH  28  29
ATOM     29  C   UNL     1      -1.294  17.817  -7.766  0.00  0.00    +0.130 C 
ATOM     30  C   UNL     1      -1.098  17.823  -6.275  0.00  0.00    +0.086 C 
ATOM     31  O   UNL     1      -0.755  16.927  -8.440  0.00  0.00    -0.298 OA
ENDBRANCH  28  29
ENDBRANCH  27  28
ENDBRANCH  18  27
ENDBRANCH  16  18
ENDBRANCH   8  14
BRANCH   5   4
ATOM      4  C   UNL     1      -3.214  22.263 -13.304  0.00  0.00    +0.166 C 
BRANCH   4  33
ATOM     33  N   UNL     1      -3.169  22.571 -14.724  0.00  0.00    -0.288 N 
ATOM     34  H   UNL     1      -3.108  21.835 -15.375  0.00  0.00    +0.151 HD
ATOM     35  C   UNL     1      -3.209  23.844 -15.169  0.00  0.00    +0.301 C 
ATOM     36  O   UNL     1      -3.282  24.796 -14.371  0.00  0.00    -0.253 OA
ATOM     37  N   UNL     1      -3.208  23.974 -16.511  0.00  0.00    -0.295 N 
ATOM     38  H   UNL     1      -3.369  23.156 -17.034  0.00  0.00    +0.151 HD
BRANCH  37  39
ATOM     39  C   UNL     1      -2.990  25.219 -17.274  0.00  0.00    +0.028 C 
ATOM     40  C   UNL     1      -1.610  25.762 -16.938  0.00  0.00    +0.031 C 
ATOM     41  C   UNL     1      -4.057  26.223 -16.858  0.00  0.00    +0.031 C 
ATOM     42  C   UNL     1      -3.081  24.933 -18.766  0.00  0.00    +0.031 C 
ENDBRANCH  37  39
ENDBRANCH   4  33
BRANCH   4   2
ATOM      1  C   UNL     1      -5.493  21.342 -12.749  0.00  0.00    +0.013 C 
ATOM      2  C   UNL     1      -4.038  20.984 -13.059  0.00  0.00    -0.011 C 
ATOM      3  C   UNL     1      -4.002  20.097 -14.308  0.00  0.00    +0.013 C 
ATOM     43  C   UNL     1      -3.464  20.179 -11.890  0.00  0.00    +0.013 C 
ENDBRANCH   4   2
ENDBRANCH   5   4
TORSDOF 11
ENDMDL
MODEL 5
REMARK VINA RESULT:      -7.0      2.673      9.642
REMARK  Name = D:\DATA SETS\BI\DOCKING\8IFR\P0O_LIGAND.pdb
REMARK  20 active torsions:
REMARK  status: ('A' for Active; 'I' for Inactive)
REMARK    1  A    between atoms: _1  and  _4
REMARK    2  A    between atoms: _4  and  _7
REMARK    3  A    between atoms: _4  and  _10
REMARK    4  A    between atoms: _4  and  _39
REMARK    5  A    between atoms: _5  and  _20
REMARK    6  A    between atoms: _10  and  _11
REMARK    7  A    between atoms: _10  and  _13
REMARK    8  A    between atoms: _14  and  _35
REMARK    9  A    between atoms: _18  and  _19
REMARK   10  A    between atoms: _20  and  _21
REMARK   11  A    between atoms: _20  and  _25
REMARK   12  A    between atoms: _21  and  _22
REMARK   13  A    between atoms: _22  and  _23
REMARK   14  A    between atoms: _23  and  _24
REMARK   15  A    between atoms: _25  and  _26
REMARK   16  A    between atoms: _31  and  _32
REMARK   17  A    between atoms: _31  and  _33
REMARK   18  A    between atoms: _35  and  _36
REMARK   19  A    between atoms: _35  and  _37
REMARK   20  A    between atoms: _35  and  _38
REMARK                            x       y       z     vdW  Elec       q    Type
REMARK                         _______ _______ _______ _____ _____    ______ ____
ROOT
ATOM      5  C   UNL     1     -19.953  18.656 -25.507  0.00  0.00    +0.237 C 
ATOM      6  O   UNL     1     -20.871  19.100 -24.817  0.00  0.00    -0.274 OA
ATOM      7  N   UNL     1     -19.736  17.335 -25.589  0.00  0.00    -0.288 N 
ATOM      8  C   UNL     1     -20.542  16.420 -24.782  0.00  0.00    +0.166 C 
ATOM      9  C   UNL     1     -20.143  15.036 -25.263  0.00  0.00    +0.030 C 
ATOM     10  C   UNL     1     -20.428  14.696 -26.707  0.00  0.00    -0.025 C 
ATOM     11  C   UNL     1     -20.592  13.220 -27.006  0.00  0.00    +0.011 C 
ATOM     12  C   UNL     1     -21.261  15.575 -27.618  0.00  0.00    +0.011 C 
ATOM     13  C   UNL     1     -19.066  15.192 -26.321  0.00  0.00    +0.018 C 
ATOM     32  C   UNL     1     -18.719  16.665 -26.417  0.00  0.00    +0.113 C 
ENDROOT
BRANCH   8  14
ATOM     14  C   UNL     1     -20.240  16.616 -23.298  0.00  0.00    +0.234 C 
ATOM     15  O   UNL     1     -19.088  16.560 -22.867  0.00  0.00    -0.274 OA
ATOM     16  N   UNL     1     -21.294  16.925 -22.531  0.00  0.00    -0.311 N 
ATOM     17  H   UNL     1     -22.188  16.955 -22.942  0.00  0.00    +0.149 HD
BRANCH  16  18
ATOM     18  C   UNL     1     -21.163  17.219 -21.115  0.00  0.00    +0.074 C 
BRANCH  18  19
ATOM     19  C   UNL     1     -21.718  18.606 -20.766  0.00  0.00    +0.035 C 
BRANCH  19  20
ATOM     20  C   UNL     1     -20.697  19.391 -19.920  0.00  0.00    +0.078 C 
ATOM     21  C   UNL     1     -20.742  19.071 -18.434  0.00  0.00    +0.216 C 
ATOM     22  N   UNL     1     -19.494  18.981 -17.972  0.00  0.00    -0.315 N 
ATOM     23  H   UNL     1     -19.276  18.696 -17.055  0.00  0.00    +0.149 HD
ATOM     24  C   UNL     1     -18.483  19.346 -18.960  0.00  0.00    +0.105 C 
ATOM     25  O   UNL     1     -21.776  18.935 -17.755  0.00  0.00    -0.276 OA
ATOM     26  C   UNL     1     -19.229  19.161 -20.280  0.00  0.00    +0.031 C 
ENDBRANCH  19  20
ENDBRANCH  18  19
BRANCH  18  27
ATOM     27  C   UNL     1     -21.784  16.103 -20.275  0.00  0.00    +0.030 C 
BRANCH  27  28
ATOM     28  C   UNL     1     -21.078  15.063 -19.849  0.00  0.00    +0.076 C 
BRANCH  28  29
ATOM     29  C   UNL     1     -21.059  13.707 -20.435  0.00  0.00    +0.130 C 
ATOM     30  C   UNL     1     -20.005  13.372 -21.455  0.00  0.00    +0.086 C 
ATOM     31  O   UNL     1     -21.885  12.840 -20.114  0.00  0.00    -0.298 OA
ENDBRANCH  28  29
ENDBRANCH  27  28
ENDBRANCH  18  27
ENDBRANCH  16  18
ENDBRANCH   8  14
BRANCH   5   4
ATOM      4  C   UNL     1     -19.032  19.576 -26.310  0.00  0.00    +0.166 C 
BRANCH   4  33
ATOM     33  N   UNL     1     -19.850  20.486 -27.093  0.00  0.00    -0.288 N 
ATOM     34  H   UNL     1     -20.219  21.292 -26.665  0.00  0.00    +0.151 HD
ATOM     35  C   UNL     1     -20.115  20.252 -28.395  0.00  0.00    +0.301 C 
ATOM     36  O   UNL     1     -19.666  19.240 -28.963  0.00  0.00    -0.253 OA
ATOM     37  N   UNL     1     -20.845  21.206 -29.004  0.00  0.00    -0.295 N 
ATOM     38  H   UNL     1     -20.955  22.056 -28.519  0.00  0.00    +0.151 HD
BRANCH  37  39
ATOM     39  C   UNL     1     -21.498  21.107 -30.325  0.00  0.00    +0.028 C 
ATOM     40  C   UNL     1     -22.237  22.407 -30.603  0.00  0.00    +0.031 C 
ATOM     41  C   UNL     1     -22.486  19.949 -30.280  0.00  0.00    +0.031 C 
ATOM     42  C   UNL     1     -20.449  20.870 -31.403  0.00  0.00    +0.031 C 
ENDBRANCH  37  39
ENDBRANCH   4  33
BRANCH   4   2
ATOM      1  C   UNL     1     -16.604  19.968 -25.760  0.00  0.00    +0.013 C 
ATOM      2  C   UNL     1     -18.044  20.365 -25.429  0.00  0.00    -0.011 C 
ATOM      3  C   UNL     1     -18.213  21.867 -25.679  0.00  0.00    +0.013 C 
ATOM     43  C   UNL     1     -18.303  20.100 -23.943  0.00  0.00    +0.013 C 
ENDBRANCH   4   2
ENDBRANCH   5   4
TORSDOF 11
ENDMDL
MODEL 6
REMARK VINA RESULT:      -6.9     20.100     25.528
REMARK  Name = D:\DATA SETS\BI\DOCKING\8IFR\P0O_LIGAND.pdb
REMARK  20 active torsions:
REMARK  status: ('A' for Active; 'I' for Inactive)
REMARK    1  A    between atoms: _1  and  _4
REMARK    2  A    between atoms: _4  and  _7
REMARK    3  A    between atoms: _4  and  _10
REMARK    4  A    between atoms: _4  and  _39
REMARK    5  A    between atoms: _5  and  _20
REMARK    6  A    between atoms: _10  and  _11
REMARK    7  A    between atoms: _10  and  _13
REMARK    8  A    between atoms: _14  and  _35
REMARK    9  A    between atoms: _18  and  _19
REMARK   10  A    between atoms: _20  and  _21
REMARK   11  A    between atoms: _20  and  _25
REMARK   12  A    between atoms: _21  and  _22
REMARK   13  A    between atoms: _22  and  _23
REMARK   14  A    between atoms: _23  and  _24
REMARK   15  A    between atoms: _25  and  _26
REMARK   16  A    between atoms: _31  and  _32
REMARK   17  A    between atoms: _31  and  _33
REMARK   18  A    between atoms: _35  and  _36
REMARK   19  A    between atoms: _35  and  _37
REMARK   20  A    between atoms: _35  and  _38
REMARK                            x       y       z     vdW  Elec       q    Type
REMARK                         _______ _______ _______ _____ _____    ______ ____
ROOT
ATOM      5  C   UNL     1      -4.272  18.559 -10.572  0.00  0.00    +0.237 C 
ATOM      6  O   UNL     1      -3.595  17.532 -10.518  0.00  0.00    -0.274 OA
ATOM      7  N   UNL     1      -3.839  19.630 -11.253  0.00  0.00    -0.288 N 
ATOM      8  C   UNL     1      -2.511  19.606 -11.866  0.00  0.00    +0.166 C 
ATOM      9  C   UNL     1      -2.445  20.886 -12.681  0.00  0.00    +0.030 C 
ATOM     10  C   UNL     1      -3.436  21.038 -13.812  0.00  0.00    -0.025 C 
ATOM     11  C   UNL     1      -3.003  21.958 -14.934  0.00  0.00    +0.011 C 
ATOM     12  C   UNL     1      -4.330  19.911 -14.290  0.00  0.00    +0.011 C 
ATOM     13  C   UNL     1      -3.743  21.647 -12.477  0.00  0.00    +0.018 C 
ATOM     32  C   UNL     1      -4.566  20.895 -11.449  0.00  0.00    +0.113 C 
ENDROOT
BRANCH   8  14
ATOM     14  C   UNL     1      -1.431  19.562 -10.788  0.00  0.00    +0.234 C 
ATOM     15  O   UNL     1      -0.560  18.691 -10.790  0.00  0.00    -0.274 OA
ATOM     16  N   UNL     1      -1.456  20.568  -9.905  0.00  0.00    -0.311 N 
ATOM     17  H   UNL     1      -2.181  21.232  -9.962  0.00  0.00    +0.149 HD
BRANCH  16  18
ATOM     18  C   UNL     1      -0.453  20.713  -8.865  0.00  0.00    +0.074 C 
BRANCH  18  19
ATOM     19  C   UNL     1       0.263  22.068  -8.948  0.00  0.00    +0.035 C 
BRANCH  19  20
ATOM     20  C   UNL     1      -0.110  22.789 -10.258  0.00  0.00    +0.078 C 
ATOM     21  C   UNL     1      -0.203  24.301 -10.131  0.00  0.00    +0.216 C 
ATOM     22  N   UNL     1       0.364  24.861 -11.202  0.00  0.00    -0.315 N 
ATOM     23  H   UNL     1       0.498  25.831 -11.297  0.00  0.00    +0.149 HD
ATOM     24  C   UNL     1       0.765  23.891 -12.218  0.00  0.00    +0.105 C 
ATOM     25  O   UNL     1      -0.738  24.917  -9.192  0.00  0.00    -0.276 OA
ATOM     26  C   UNL     1       0.869  22.596 -11.416  0.00  0.00    +0.031 C 
ENDBRANCH  19  20
ENDBRANCH  18  19
BRANCH  18  27
ATOM     27  C   UNL     1      -1.063  20.448  -7.489  0.00  0.00    +0.030 C 
BRANCH  27  28
ATOM     28  C   UNL     1      -0.647  19.457  -6.711  0.00  0.00    +0.076 C 
BRANCH  28  29
ATOM     29  C   UNL     1      -1.097  18.050  -6.752  0.00  0.00    +0.130 C 
ATOM     30  C   UNL     1      -2.051  17.562  -5.696  0.00  0.00    +0.086 C 
ATOM     31  O   UNL     1      -0.713  17.262  -7.629  0.00  0.00    -0.298 OA
ENDBRANCH  28  29
ENDBRANCH  27  28
ENDBRANCH  18  27
ENDBRANCH  16  18
ENDBRANCH   8  14
BRANCH   5   4
ATOM      4  C   UNL     1      -5.634  18.661  -9.882  0.00  0.00    +0.166 C 
BRANCH   4  33
ATOM     33  N   UNL     1      -6.475  17.573 -10.349  0.00  0.00    -0.288 N 
ATOM     34  H   UNL     1      -6.396  16.687  -9.926  0.00  0.00    +0.151 HD
ATOM     35  C   UNL     1      -7.363  17.748 -11.349  0.00  0.00    +0.301 C 
ATOM     36  O   UNL     1      -7.483  18.854 -11.907  0.00  0.00    -0.253 OA
ATOM     37  N   UNL     1      -8.107  16.663 -11.642  0.00  0.00    -0.295 N 
ATOM     38  H   UNL     1      -8.079  15.920 -10.996  0.00  0.00    +0.151 HD
BRANCH  37  39
ATOM     39  C   UNL     1      -8.961  16.476 -12.832  0.00  0.00    +0.028 C 
ATOM     40  C   UNL     1     -10.168  17.396 -12.716  0.00  0.00    +0.031 C 
ATOM     41  C   UNL     1      -9.419  15.025 -12.864  0.00  0.00    +0.031 C 
ATOM     42  C   UNL     1      -8.176  16.814 -14.090  0.00  0.00    +0.031 C 
ENDBRANCH  37  39
ENDBRANCH   4  33
BRANCH   4   2
ATOM      1  C   UNL     1      -6.861  19.106  -7.727  0.00  0.00    +0.013 C 
ATOM      2  C   UNL     1      -5.539  18.645  -8.344  0.00  0.00    -0.011 C 
ATOM      3  C   UNL     1      -5.235  17.224  -7.859  0.00  0.00    +0.013 C 
ATOM     43  C   UNL     1      -4.415  19.563  -7.855  0.00  0.00    +0.013 C 
ENDBRANCH   4   2
ENDBRANCH   5   4
TORSDOF 11
ENDMDL
MODEL 7
REMARK VINA RESULT:      -6.7      2.808      8.656
REMARK  Name = D:\DATA SETS\BI\DOCKING\8IFR\P0O_LIGAND.pdb
REMARK  20 active torsions:
REMARK  status: ('A' for Active; 'I' for Inactive)
REMARK    1  A    between atoms: _1  and  _4
REMARK    2  A    between atoms: _4  and  _7
REMARK    3  A    between atoms: _4  and  _10
REMARK    4  A    between atoms: _4  and  _39
REMARK    5  A    between atoms: _5  and  _20
REMARK    6  A    between atoms: _10  and  _11
REMARK    7  A    between atoms: _10  and  _13
REMARK    8  A    between atoms: _14  and  _35
REMARK    9  A    between atoms: _18  and  _19
REMARK   10  A    between atoms: _20  and  _21
REMARK   11  A    between atoms: _20  and  _25
REMARK   12  A    between atoms: _21  and  _22
REMARK   13  A    between atoms: _22  and  _23
REMARK   14  A    between atoms: _23  and  _24
REMARK   15  A    between atoms: _25  and  _26
REMARK   16  A    between atoms: _31  and  _32
REMARK   17  A    between atoms: _31  and  _33
REMARK   18  A    between atoms: _35  and  _36
REMARK   19  A    between atoms: _35  and  _37
REMARK   20  A    between atoms: _35  and  _38
REMARK                            x       y       z     vdW  Elec       q    Type
REMARK                         _______ _______ _______ _____ _____    ______ ____
ROOT
ATOM      5  C   UNL     1     -22.463  19.332 -28.374  0.00  0.00    +0.237 C 
ATOM      6  O   UNL     1     -22.965  18.215 -28.499  0.00  0.00    -0.274 OA
ATOM      7  N   UNL     1     -21.288  19.623 -28.953  0.00  0.00    -0.288 N 
ATOM      8  C   UNL     1     -20.556  18.576 -29.666  0.00  0.00    +0.166 C 
ATOM      9  C   UNL     1     -19.396  19.304 -30.322  0.00  0.00    +0.030 C 
ATOM     10  C   UNL     1     -19.733  20.363 -31.346  0.00  0.00    -0.025 C 
ATOM     11  C   UNL     1     -18.658  20.633 -32.378  0.00  0.00    +0.011 C 
ATOM     12  C   UNL     1     -21.132  20.582 -31.886  0.00  0.00    +0.011 C 
ATOM     13  C   UNL     1     -19.466  20.768 -29.926  0.00  0.00    +0.018 C 
ATOM     32  C   UNL     1     -20.605  20.927 -28.936  0.00  0.00    +0.113 C 
ENDROOT
BRANCH   8  14
ATOM     14  C   UNL     1     -20.078  17.506 -28.689  0.00  0.00    +0.234 C 
ATOM     15  O   UNL     1     -19.812  16.364 -29.070  0.00  0.00    -0.274 OA
ATOM     16  N   UNL     1     -19.896  17.916 -27.427  0.00  0.00    -0.311 N 
ATOM     17  H   UNL     1     -20.127  18.843 -27.192  0.00  0.00    +0.149 HD
BRANCH  16  18
ATOM     18  C   UNL     1     -19.372  17.040 -26.395  0.00  0.00    +0.074 C 
BRANCH  18  19
ATOM     19  C   UNL     1     -18.372  17.765 -25.484  0.00  0.00    +0.035 C 
BRANCH  19  20
ATOM     20  C   UNL     1     -18.233  19.239 -25.914  0.00  0.00    +0.078 C 
ATOM     21  C   UNL     1     -18.222  20.226 -24.757  0.00  0.00    +0.216 C 
ATOM     22  N   UNL     1     -17.291  21.153 -24.987  0.00  0.00    -0.315 N 
ATOM     23  H   UNL     1     -17.045  21.846 -24.332  0.00  0.00    +0.149 HD
ATOM     24  C   UNL     1     -16.672  21.038 -26.305  0.00  0.00    +0.105 C 
ATOM     25  O   UNL     1     -18.975  20.187 -23.766  0.00  0.00    -0.276 OA
ATOM     26  C   UNL     1     -16.953  19.583 -26.676  0.00  0.00    +0.031 C 
ENDBRANCH  19  20
ENDBRANCH  18  19
BRANCH  18  27
ATOM     27  C   UNL     1     -20.512  16.383 -25.618  0.00  0.00    +0.030 C 
BRANCH  27  28
ATOM     28  C   UNL     1     -20.942  15.158 -25.895  0.00  0.00    +0.076 C 
BRANCH  28  29
ATOM     29  C   UNL     1     -20.126  13.928 -25.967  0.00  0.00    +0.130 C 
ATOM     30  C   UNL     1     -20.203  13.077 -27.204  0.00  0.00    +0.086 C 
ATOM     31  O   UNL     1     -19.382  13.577 -25.039  0.00  0.00    -0.298 OA
ENDBRANCH  28  29
ENDBRANCH  27  28
ENDBRANCH  18  27
ENDBRANCH  16  18
ENDBRANCH   8  14
BRANCH   5   4
ATOM      4  C   UNL     1     -23.151  20.438 -27.574  0.00  0.00    +0.166 C 
BRANCH   4  33
ATOM     33  N   UNL     1     -24.457  20.694 -28.158  0.00  0.00    -0.288 N 
ATOM     34  H   UNL     1     -25.204  20.088 -27.951  0.00  0.00    +0.151 HD
ATOM     35  C   UNL     1     -24.667  21.743 -28.979  0.00  0.00    +0.301 C 
ATOM     36  O   UNL     1     -23.741  22.524 -29.264  0.00  0.00    -0.253 OA
ATOM     37  N   UNL     1     -25.938  21.881 -29.406  0.00  0.00    -0.295 N 
ATOM     38  H   UNL     1     -26.620  21.340 -28.946  0.00  0.00    +0.151 HD
BRANCH  37  39
ATOM     39  C   UNL     1     -26.411  22.761 -30.494  0.00  0.00    +0.028 C 
ATOM     40  C   UNL     1     -26.261  24.208 -30.050  0.00  0.00    +0.031 C 
ATOM     41  C   UNL     1     -27.878  22.449 -30.753  0.00  0.00    +0.031 C 
ATOM     42  C   UNL     1     -25.586  22.519 -31.750  0.00  0.00    +0.031 C 
ENDBRANCH  37  39
ENDBRANCH   4  33
BRANCH   4   2
ATOM      1  C   UNL     1     -23.859  21.309 -25.317  0.00  0.00    +0.013 C 
ATOM      2  C   UNL     1     -23.290  20.108 -26.075  0.00  0.00    -0.011 C 
ATOM      3  C   UNL     1     -24.235  18.915 -25.893  0.00  0.00    +0.013 C 
ATOM     43  C   UNL     1     -21.934  19.734 -25.469  0.00  0.00    +0.013 C 
ENDBRANCH   4   2
ENDBRANCH   5   4
TORSDOF 11
ENDMDL
MODEL 8
REMARK VINA RESULT:      -6.6     23.137     27.615
REMARK  Name = D:\DATA SETS\BI\DOCKING\8IFR\P0O_LIGAND.pdb
REMARK  20 active torsions:
REMARK  status: ('A' for Active; 'I' for Inactive)
REMARK    1  A    between atoms: _1  and  _4
REMARK    2  A    between atoms: _4  and  _7
REMARK    3  A    between atoms: _4  and  _10
REMARK    4  A    between atoms: _4  and  _39
REMARK    5  A    between atoms: _5  and  _20
REMARK    6  A    between atoms: _10  and  _11
REMARK    7  A    between atoms: _10  and  _13
REMARK    8  A    between atoms: _14  and  _35
REMARK    9  A    between atoms: _18  and  _19
REMARK   10  A    between atoms: _20  and  _21
REMARK   11  A    between atoms: _20  and  _25
REMARK   12  A    between atoms: _21  and  _22
REMARK   13  A    between atoms: _22  and  _23
REMARK   14  A    between atoms: _23  and  _24
REMARK   15  A    between atoms: _25  and  _26
REMARK   16  A    between atoms: _31  and  _32
REMARK   17  A    between atoms: _31  and  _33
REMARK   18  A    between atoms: _35  and  _36
REMARK   19  A    between atoms: _35  and  _37
REMARK   20  A    between atoms: _35  and  _38
REMARK                            x       y       z     vdW  Elec       q    Type
REMARK                         _______ _______ _______ _____ _____    ______ ____
ROOT
ATOM      5  C   UNL     1      -0.285  21.055  -7.774  0.00  0.00    +0.237 C 
ATOM      6  O   UNL     1       0.757  20.719  -8.338  0.00  0.00    -0.274 OA
ATOM      7  N   UNL     1      -1.440  20.428  -8.040  0.00  0.00    -0.288 N 
ATOM      8  C   UNL     1      -1.479  19.393  -9.074  0.00  0.00    +0.166 C 
ATOM      9  C   UNL     1      -2.873  18.802  -8.968  0.00  0.00    +0.030 C 
ATOM     10  C   UNL     1      -3.241  18.123  -7.669  0.00  0.00    -0.025 C 
ATOM     11  C   UNL     1      -4.321  17.067  -7.772  0.00  0.00    +0.011 C 
ATOM     12  C   UNL     1      -2.237  17.830  -6.572  0.00  0.00    +0.011 C 
ATOM     13  C   UNL     1      -3.629  19.555  -7.888  0.00  0.00    +0.018 C 
ATOM     32  C   UNL     1      -2.742  20.685  -7.401  0.00  0.00    +0.113 C 
ENDROOT
BRANCH   8  14
ATOM     14  C   UNL     1      -1.223  20.007 -10.447  0.00  0.00    +0.234 C 
ATOM     15  O   UNL     1      -0.359  19.555 -11.200  0.00  0.00    -0.274 OA
ATOM     16  N   UNL     1      -2.047  21.004 -10.796  0.00  0.00    -0.311 N 
ATOM     17  H   UNL     1      -2.717  21.315 -10.146  0.00  0.00    +0.149 HD
BRANCH  16  18
ATOM     18  C   UNL     1      -1.986  21.642 -12.099  0.00  0.00    +0.074 C 
BRANCH  18  19
ATOM     19  C   UNL     1      -3.222  22.509 -12.369  0.00  0.00    +0.035 C 
BRANCH  19  20
ATOM     20  C   UNL     1      -4.260  21.717 -13.189  0.00  0.00    +0.078 C 
ATOM     21  C   UNL     1      -3.655  20.829 -14.265  0.00  0.00    +0.216 C 
ATOM     22  N   UNL     1      -4.296  19.659 -14.270  0.00  0.00    -0.315 N 
ATOM     23  H   UNL     1      -4.020  18.894 -14.825  0.00  0.00    +0.149 HD
ATOM     24  C   UNL     1      -5.446  19.624 -13.371  0.00  0.00    +0.105 C 
ATOM     25  O   UNL     1      -2.728  21.149 -15.031  0.00  0.00    -0.276 OA
ATOM     26  C   UNL     1      -5.131  20.750 -12.389  0.00  0.00    +0.031 C 
ENDBRANCH  19  20
ENDBRANCH  18  19
BRANCH  18  27
ATOM     27  C   UNL     1      -0.676  22.412 -12.260  0.00  0.00    +0.030 C 
BRANCH  27  28
ATOM     28  C   UNL     1      -0.646  23.694 -12.601  0.00  0.00    +0.076 C 
BRANCH  28  29
ATOM     29  C   UNL     1       0.083  24.290 -13.740  0.00  0.00    +0.130 C 
ATOM     30  C   UNL     1      -0.695  24.723 -14.952  0.00  0.00    +0.086 C 
ATOM     31  O   UNL     1       1.313  24.441 -13.727  0.00  0.00    -0.298 OA
ENDBRANCH  28  29
ENDBRANCH  27  28
ENDBRANCH  18  27
ENDBRANCH  16  18
ENDBRANCH   8  14
BRANCH   5   4
ATOM      4  C   UNL     1      -0.313  22.184  -6.743  0.00  0.00    +0.166 C 
BRANCH   4  33
ATOM     33  N   UNL     1       0.809  22.013  -5.835  0.00  0.00    -0.288 N 
ATOM     34  H   UNL     1       1.717  22.235  -6.144  0.00  0.00    +0.151 HD
ATOM     35  C   UNL     1       0.634  21.557  -4.578  0.00  0.00    +0.301 C 
ATOM     36  O   UNL     1      -0.501  21.265  -4.159  0.00  0.00    -0.253 OA
ATOM     37  N   UNL     1       1.758  21.497  -3.836  0.00  0.00    -0.295 N 
ATOM     38  H   UNL     1       2.551  21.956  -4.197  0.00  0.00    +0.151 HD
BRANCH  37  39
ATOM     39  C   UNL     1       1.921  20.811  -2.538  0.00  0.00    +0.028 C 
ATOM     40  C   UNL     1       1.428  19.379  -2.678  0.00  0.00    +0.031 C 
ATOM     41  C   UNL     1       1.082  21.549  -1.504  0.00  0.00    +0.031 C 
ATOM     42  C   UNL     1       3.388  20.813  -2.133  0.00  0.00    +0.031 C 
ENDBRANCH  37  39
ENDBRANCH   4  33
BRANCH   4   2
ATOM      1  C   UNL     1      -1.133  24.560  -6.558  0.00  0.00    +0.013 C 
ATOM      2  C   UNL     1      -0.281  23.588  -7.377  0.00  0.00    -0.011 C 
ATOM      3  C   UNL     1       1.161  24.106  -7.416  0.00  0.00    +0.013 C 
ATOM     43  C   UNL     1      -0.810  23.552  -8.814  0.00  0.00    +0.013 C 
ENDBRANCH   4   2
ENDBRANCH   5   4
TORSDOF 11
ENDMDL
MODEL 9
REMARK VINA RESULT:      -6.2      3.196      5.387
REMARK  Name = D:\DATA SETS\BI\DOCKING\8IFR\P0O_LIGAND.pdb
REMARK  20 active torsions:
REMARK  status: ('A' for Active; 'I' for Inactive)
REMARK    1  A    between atoms: _1  and  _4
REMARK    2  A    between atoms: _4  and  _7
REMARK    3  A    between atoms: _4  and  _10
REMARK    4  A    between atoms: _4  and  _39
REMARK    5  A    between atoms: _5  and  _20
REMARK    6  A    between atoms: _10  and  _11
REMARK    7  A    between atoms: _10  and  _13
REMARK    8  A    between atoms: _14  and  _35
REMARK    9  A    between atoms: _18  and  _19
REMARK   10  A    between atoms: _20  and  _21
REMARK   11  A    between atoms: _20  and  _25
REMARK   12  A    between atoms: _21  and  _22
REMARK   13  A    between atoms: _22  and  _23
REMARK   14  A    between atoms: _23  and  _24
REMARK   15  A    between atoms: _25  and  _26
REMARK   16  A    between atoms: _31  and  _32
REMARK   17  A    between atoms: _31  and  _33
REMARK   18  A    between atoms: _35  and  _36
REMARK   19  A    between atoms: _35  and  _37
REMARK   20  A    between atoms: _35  and  _38
REMARK                            x       y       z     vdW  Elec       q    Type
REMARK                         _______ _______ _______ _____ _____    ______ ____
ROOT
ATOM      5  C   UNL     1     -20.532  19.550 -24.041  0.00  0.00    +0.237 C 
ATOM      6  O   UNL     1     -21.579  20.093 -24.393  0.00  0.00    -0.274 OA
ATOM      7  N   UNL     1     -19.403  19.719 -24.746  0.00  0.00    -0.288 N 
ATOM      8  C   UNL     1     -19.438  20.483 -25.993  0.00  0.00    +0.166 C 
ATOM      9  C   UNL     1     -17.981  20.609 -26.403  0.00  0.00    +0.030 C 
ATOM     10  C   UNL     1     -17.061  21.359 -25.467  0.00  0.00    -0.025 C 
ATOM     11  C   UNL     1     -15.842  21.980 -26.116  0.00  0.00    +0.011 C 
ATOM     12  C   UNL     1     -17.556  22.149 -24.272  0.00  0.00    +0.011 C 
ATOM     13  C   UNL     1     -17.134  19.863 -25.387  0.00  0.00    +0.018 C 
ATOM     32  C   UNL     1     -18.074  19.181 -24.411  0.00  0.00    +0.113 C 
ENDROOT
BRANCH   8  14
ATOM     14  C   UNL     1     -20.263  19.745 -27.044  0.00  0.00    +0.234 C 
ATOM     15  O   UNL     1     -21.426  20.070 -27.290  0.00  0.00    -0.274 OA
ATOM     16  N   UNL     1     -19.614  18.788 -27.719  0.00  0.00    -0.311 N 
ATOM     17  H   UNL     1     -18.684  18.581 -27.472  0.00  0.00    +0.149 HD
BRANCH  16  18
ATOM     18  C   UNL     1     -20.233  18.046 -28.803  0.00  0.00    +0.074 C 
BRANCH  18  19
ATOM     19  C   UNL     1     -19.724  18.507 -30.175  0.00  0.00    +0.035 C 
BRANCH  19  20
ATOM     20  C   UNL     1     -20.528  19.730 -30.658  0.00  0.00    +0.078 C 
ATOM     21  C   UNL     1     -19.776  20.622 -31.634  0.00  0.00    +0.216 C 
ATOM     22  N   UNL     1     -20.607  20.995 -32.608  0.00  0.00    -0.315 N 
ATOM     23  H   UNL     1     -20.319  21.505 -33.399  0.00  0.00    +0.149 HD
ATOM     24  C   UNL     1     -21.987  20.571 -32.386  0.00  0.00    +0.105 C 
ATOM     25  O   UNL     1     -18.585  20.966 -31.529  0.00  0.00    -0.276 OA
ATOM     26  C   UNL     1     -21.823  19.413 -31.405  0.00  0.00    +0.031 C 
ENDBRANCH  19  20
ENDBRANCH  18  19
BRANCH  18  27
ATOM     27  C   UNL     1     -20.072  16.542 -28.586  0.00  0.00    +0.030 C 
BRANCH  27  28
ATOM     28  C   UNL     1     -19.315  16.045 -27.616  0.00  0.00    +0.076 C 
BRANCH  28  29
ATOM     29  C   UNL     1     -19.674  14.958 -26.682  0.00  0.00    +0.130 C 
ATOM     30  C   UNL     1     -20.932  14.173 -26.933  0.00  0.00    +0.086 C 
ATOM     31  O   UNL     1     -18.972  14.675 -25.700  0.00  0.00    -0.298 OA
ENDBRANCH  28  29
ENDBRANCH  27  28
ENDBRANCH  18  27
ENDBRANCH  16  18
ENDBRANCH   8  14
BRANCH   5   4
ATOM      4  C   UNL     1     -20.460  18.677 -22.788  0.00  0.00    +0.166 C 
BRANCH   4  33
ATOM     33  N   UNL     1     -21.089  19.389 -21.688  0.00  0.00    -0.288 N 
ATOM     34  H   UNL     1     -22.071  19.401 -21.621  0.00  0.00    +0.151 HD
ATOM     35  C   UNL     1     -20.357  20.032 -20.756  0.00  0.00    +0.301 C 
ATOM     36  O   UNL     1     -19.113  20.038 -20.815  0.00  0.00    -0.253 OA
ATOM     37  N   UNL     1     -21.074  20.607 -19.770  0.00  0.00    -0.295 N 
ATOM     38  H   UNL     1     -22.023  20.352 -19.708  0.00  0.00    +0.151 HD
BRANCH  37  39
ATOM     39  C   UNL     1     -20.581  21.578 -18.772  0.00  0.00    +0.028 C 
ATOM     40  C   UNL     1     -21.712  21.904 -17.809  0.00  0.00    +0.031 C 
ATOM     41  C   UNL     1     -20.150  22.837 -19.510  0.00  0.00    +0.031 C 
ATOM     42  C   UNL     1     -19.409  20.982 -18.007  0.00  0.00    +0.031 C 
ENDBRANCH  37  39
ENDBRANCH   4  33
BRANCH   4   2
ATOM      1  C   UNL     1     -21.503  17.082 -24.437  0.00  0.00    +0.013 C 
ATOM      2  C   UNL     1     -21.112  17.293 -22.973  0.00  0.00    -0.011 C 
ATOM      3  C   UNL     1     -20.123  16.196 -22.562  0.00  0.00    +0.013 C 
ATOM     43  C   UNL     1     -22.362  17.155 -22.099  0.00  0.00    +0.013 C 
ENDBRANCH   4   2
ENDBRANCH   5   4
TORSDOF 11
ENDMDL
